240
 CELL = 16.653280 -9.614828 0.000000 19.229576 25.667890 (6.917262)
   Al    1.38778000    7.21109300    6.55908000
   Al    1.38779000   12.01848300    6.55908000
   Al    5.55110000    9.61478300    6.55908000
   Al    5.55110000   14.42218300    6.55908000
   Al   13.87774000   -0.00002700    6.55908000
   Al   13.87774000    4.80736300    6.55908000
   Al    1.38777000    2.40371300    6.55909000
   Al    1.38777000   16.82589300    6.55909000
   Al    5.55109000    4.80739300    6.55909000
   Al    5.55110000    0.00000300    6.55909000
   Al    9.71441000   -2.40371700    6.55909000
   Al    9.71441000    2.40368300    6.55909000
   Al    9.71441000    7.21107300    6.55909000
   Al    9.71442000   12.01847300    6.55909000
   Al   13.87773000   -4.80741700    6.55909000
   Al   13.87773000    9.61477300    6.55909000
    O   12.37655000    5.54805300    7.41014000
    O   16.53988000   -1.66304700    7.41014000
    O   16.53988000    3.14435300    7.41014000
    O    1.49691000    0.73329300    7.41015000
    O    1.49691000    5.54068300    7.41015000
    O    1.49692000   15.15546300    7.41015000
    O    1.49693000   10.34806300    7.41015000
    O    2.77982000   -1.47396700    7.41015000
    O    2.77982000    3.33343300    7.41015000
    O    2.77983000    8.14081300    7.41015000
    O    2.77983000   12.94820300    7.41015000
    O    4.04990000    0.74070300    7.41015000
    O    4.04991000    5.54809300    7.41015000
    O    4.04991000   15.16287300    7.41015000
    O    4.04992000   10.35547300    7.41015000
    O    5.66023000   -1.67041700    7.41015000
    O    5.66023000    3.13698300    7.41015000
    O    5.66023000    7.94437300    7.41015000
    O    5.66023000   12.75176300    7.41015000
    O    6.94314000    0.92972300    7.41015000
    O    6.94315000   -3.87767700    7.41015000
    O    6.94315000    5.73712300    7.41015000
    O    6.94315000   10.54451300    7.41015000
    O    8.21323000   -1.66301700    7.41015000
    O    8.21323000    3.14439300    7.41015000
    O    8.21323000    7.95178300    7.41015000
    O    8.21323000   12.75917300    7.41015000
    O    9.82355000   -4.07411700    7.41015000
    O    9.82355000   10.34805300    7.41015000
    O    9.82356000    0.73326300    7.41015000
    O    9.82356000    5.54065300    7.41015000
    O   11.10646000   -6.28137700    7.41015000
    O   11.10647000   -1.47399700    7.41015000
    O   11.10647000    8.14078300    7.41015000
    O   12.37655000   -4.06671700    7.41015000
    O   12.37655000   10.35545300    7.41015000
    O   12.37656000    0.74066300    7.41015000
    O   13.98686000   -6.47782700    7.41015000
    O   13.98687000    7.94435300    7.41015000
    O   13.98688000   -1.67044700    7.41015000
    O   13.98688000    3.13694300    7.41015000
    O   15.26978000   -8.68508700    7.41015000
    O   15.26979000   -3.87770700    7.41015000
    O   15.26979000    5.73709300    7.41015000
    O   15.26980000    0.92968300    7.41015000
    O   16.53986000   -6.47042700    7.41015000
    O   16.53986000    7.95176300    7.41015000
    O   11.10647000    3.33339300    7.41016000
   Al    0.00001000   14.42218300    8.26505000
   Al    0.00002000    9.61477300    8.26506000
   Al   12.48996000    7.21104300    8.26506000
   Al   12.48997000    2.40365300    8.26506000
   Al    0.00000000    0.00002300    8.26507000
   Al    4.16332000   -2.40370700    8.26507000
   Al    4.16333000   12.01846300    8.26507000
   Al   12.48998000   -2.40372700    8.26507000
   Al    0.00001000    4.80739300    8.26508000
   Al    4.16332000    2.40370300    8.26508000
   Al    4.16333000    7.21108300    8.26508000
   Al    8.32664000   -0.00000700    8.26508000
   Al    8.32664000    4.80739300    8.26508000
   Al    8.32665000   -4.80740700    8.26508000
   Al    8.32665000    9.61478300    8.26508000
   Al   12.48995000   12.01846300    8.26508000
   Al   15.26555000    2.40361300    8.71965000
   Al    2.77555000    0.00002300    8.71966000
   Al    2.77559000   14.42214300    8.71966000
   Al   11.10221000    4.80732300    8.71966000
   Al   15.26551000    7.21107300    8.71966000
   Al    2.77555000    4.80740300    8.71967000
   Al    2.77559000    9.61474300    8.71967000
   Al    6.93887000    2.40370300    8.71967000
   Al    6.93887000    7.21109300    8.71967000
   Al    6.93887000   12.01848300    8.71967000
   Al    6.93890000   -2.40374700    8.71967000
   Al   11.10219000   -4.80740700    8.71967000
   Al   11.10221000   -0.00007700    8.71967000
   Al   11.10221000    9.61472300    8.71967000
   Al   15.26550000   -7.21110700    8.71967000
   Al   15.26554000   -2.40377700    8.71967000
    O   15.36024000    4.05345300    9.61671000
    O   16.64692000    6.30414300    9.61671000
    O    1.29944000   13.67930300    9.61672000
    O    2.87026000    1.64981300    9.61672000
    O    2.87027000   11.26457300    9.61672000
    O    2.87027000   16.07197300    9.61672000
    O   11.19691000    6.45715300    9.61672000
    O   12.48362000   -0.90695700    9.61672000
    O   12.48362000    3.90043300    9.61672000
    O   13.78940000    6.46818300    9.61672000
    O   13.78941000    1.66078300    9.61672000
    O   15.36022000    8.86086300    9.61672000
    O   15.36024000   -0.75393700    9.61672000
    O   16.64694000    1.49673300    9.61672000
    O    1.29942000   -0.74285700    9.61673000
    O    1.29943000    4.06453300    9.61673000
    O    1.29944000    8.87191300    9.61673000
    O    4.15695000   -0.90690700    9.61673000
    O    4.15697000   13.51525300    9.61673000
    O    7.03358000   -0.75391700    9.61673000
    O    7.03359000   13.66827300    9.61673000
    O    8.32028000    1.49677300    9.61673000
    O    8.32028000    6.30416300    9.61673000
    O    8.32028000   11.11155300    9.61673000
    O    8.32029000   -3.31062700    9.61673000
    O    9.62607000   -5.55027700    9.61673000
    O    9.62607000    8.87189300    9.61673000
    O    9.62608000   -0.74288700    9.61673000
    O    9.62608000    4.06450300    9.61673000
    O   11.19690000   11.26455300    9.61673000
    O   11.19691000   -3.15760700    9.61673000
    O   11.19692000    1.64976300    9.61673000
    O   12.48360000   -5.71433700    9.61673000
    O   12.48361000    8.70783300    9.61673000
    O   13.78939000   -7.95398700    9.61673000
    O   13.78940000   -3.14659700    9.61673000
    O   16.64691000   -8.11802700    9.61673000
    O    2.87027000    6.45720300    9.61674000
    O    4.15695000    3.90049300    9.61674000
    O    4.15697000    8.70786300    9.61674000
    O    5.46274000    1.66083300    9.61674000
    O    5.46276000   -3.14656700    9.61674000
    O    5.46276000    6.46822300    9.61674000
    O    5.46276000   11.27560300    9.61674000
    O    7.03358000    4.05349300    9.61674000
    O    7.03359000    8.86088300    9.61674000
    O   15.36022000   -5.56131700    9.61674000
    O   16.64693000   -3.31065700    9.61674000
   Al    1.38778000   16.82588300   10.63364000
   Al    1.38779000   12.01849300   10.63364000
   Al    5.55110000    0.00000300   10.63364000
   Al    9.71442000    7.21108300   10.63364000
   Al   13.87774000   -0.00003700   10.63364000
   Al   13.87774000    4.80736300   10.63364000
   Al    1.38777000    2.40371300   10.63365000
   Al    1.38778000    7.21110300   10.63365000
   Al    5.55110000    4.80740300   10.63365000
   Al    5.55110000   14.42218300   10.63365000
   Al    9.71441000    2.40368300   10.63365000
   Al    9.71442000   -2.40370700   10.63365000
   Al    9.71442000   12.01848300   10.63365000
   Al   13.87773000    9.61478300   10.63365000
   Al   13.87774000   -4.80741700   10.63365000
   Al    5.55110000    9.61479300   10.63366000
   Al    0.00001000   14.42219300   10.90279000
   Al    4.16333000    2.40371300   10.90279000
   Al    0.00000000    0.00002300   10.90280000
   Al    0.00000000    4.80741300   10.90280000
   Al    0.00001000    9.61479300   10.90280000
   Al    4.16332000   -2.40369700   10.90280000
   Al    4.16333000    7.21110300   10.90280000
   Al    4.16333000   12.01849300   10.90280000
   Al    8.32664000    0.00000300   10.90280000
   Al    8.32664000    4.80738300   10.90280000
   Al    8.32665000    9.61477300   10.90280000
   Al    8.32666000   -4.80739700   10.90280000
   Al   12.48996000   -7.21110700   10.90280000
   Al   12.48996000    7.21106300   10.90280000
   Al   12.48997000   -2.40371700   10.90280000
   Al   12.48997000    2.40367300   10.90281000
    O    0.10617000   12.83372300   11.78316000
    O    0.10617000   17.64112300   11.78316000
    O    1.32258000   15.30836300   11.78316000
    O   11.06123000    7.91337300   11.78316000
    O   15.22455000    5.50967300   11.78316000
    O   15.22456000    0.70226300   11.78316000
    O    1.32259000    0.88618300   11.78317000
    O    2.73457000   17.52820300   11.78317000
    O    2.73459000   12.72078300   11.78317000
    O   11.06123000   -1.70141700   11.78317000
    O   11.06123000    3.10598300   11.78317000
    O   12.59613000    5.62259300   11.78317000
    O   13.81254000    8.09724300   11.78317000
    O   13.81255000    3.28984300   11.78317000
    O    0.10617000    3.21894300   11.78318000
    O    0.10617000    8.02632300   11.78318000
    O    1.32260000   10.50097300   11.78318000
    O    2.73458000    3.10602300   11.78318000
    O    2.73459000    7.91340300   11.78318000
    O    4.26949000    0.81524300   11.78318000
    O    4.26950000   10.43002300   11.78318000
    O    4.26950000   15.23742300   11.78318000
    O    5.48589000    3.28989300   11.78318000
    O    5.48591000   12.90466300   11.78318000
    O    6.89790000    0.70229300   11.78318000
    O    6.89791000   10.31708300   11.78318000
    O    6.89791000   15.12449300   11.78318000
    O    8.43280000   -1.58848700   11.78318000
    O    8.43280000    3.21891300   11.78318000
    O    8.43280000    8.02630300   11.78318000
    O    8.43281000   12.83370300   11.78318000
    O    9.64921000    5.69356300   11.78318000
    O    9.64921000   10.50096300   11.78318000
    O    9.64922000   -3.92121700   11.78318000
    O    9.64922000    0.88616300   11.78318000
    O   11.06123000   12.72077300   11.78318000
    O   12.59612000   10.42998300   11.78318000
    O   12.59613000    0.81519300   11.78318000
    O   12.59614000   -3.99218700   11.78318000
    O   13.81253000   -6.32492700   11.78318000
    O   13.81255000   -1.51753700   11.78318000
    O   15.22455000   10.31708300   11.78318000
    O    1.32260000    5.69358300   11.78319000
    O    4.26949000    5.62263300   11.78319000
    O    5.48589000   -1.51750700   11.78319000
    O    5.48589000    8.09728300   11.78319000
    O    6.89791000    5.50970300   11.78319000
    O   15.22455000   -4.10512700   11.78319000
   Al    6.93887000   12.01849300   11.86787000
   Al    2.77552000    0.00000300   11.86788000
   Al    2.77553000   14.42219300   11.86788000
   Al    2.77554000    4.80741300   11.86788000
   Al    6.93887000   -2.40367700   11.86788000
   Al    6.93888000    2.40370300   11.86788000
   Al   11.10220000   -4.80740700   11.86788000
   Al   11.10220000    0.00000300   11.86788000
   Al   11.10220000    9.61476300   11.86788000
   Al   15.26551000   -7.21112700   11.86788000
   Al   15.26551000    7.21105300   11.86788000
   Al    2.77554000    9.61481300   11.86789000
   Al    6.93889000    7.21108300   11.86789000
   Al   11.10221000    4.80737300   11.86789000
   Al   15.26552000   -2.40370700   11.86789000
   Al   15.26552000    2.40368300   11.86789000
